144
13.54199982 15.28800011 13.57800007
Ga -4.514 1.1840556 -4.1593943
Ga -4.514 6.4599443 -0.3666058
Ga -4.514 2.6379442 -1.8963944
Ga -4.514 5.0060558 -2.629606
Ga -2.257 5.0060558 -4.1593943
Ga -2.257 2.6379442 -0.3666058
Ga -2.257 6.4599443 -1.8963944
Ga -2.257 1.1840556 -2.629606
Ga -4.514 1.1840556 0.366606
Ga -4.514 6.4599443 4.1593943
Ga -4.514 2.6379442 2.6296058
Ga -4.514 5.0060558 1.896394
Ga -2.257 5.0060558 0.366606
Ga -2.257 2.6379442 4.1593943
Ga -2.257 6.4599443 2.6296058
Ga -2.257 1.1840556 1.896394
Ga -4.514 1.1840556 4.8926058
Ga -4.514 6.4599443 8.6853943
Ga -4.514 2.6379442 7.1556058
Ga -4.514 5.0060558 6.4223938
Ga -2.257 5.0060558 4.8926058
Ga -2.257 2.6379442 8.6853943
Ga -2.257 6.4599443 7.1556058
Ga -2.257 1.1840556 6.4223938
Ga -4.514 8.8280554 -4.1593943
Ga -4.514 14.1039448 -0.3666058
Ga -4.514 10.2819443 -1.8963944
Ga -4.514 12.6500559 -2.629606
Ga -2.257 12.6500559 -4.1593943
Ga -2.257 10.2819443 -0.3666058
Ga -2.257 14.1039448 -1.8963944
Ga -2.257 8.8280554 -2.629606
Ga -4.514 8.8280554 0.366606
Ga -4.514 14.1039448 4.1593943
Ga -4.514 10.2819443 2.6296058
Ga -4.514 12.6500559 1.896394
Ga -2.257 12.6500559 0.366606
Ga -2.257 10.2819443 4.1593943
Ga -2.257 14.1039448 2.6296058
Ga -2.257 8.8280554 1.896394
Ga -4.514 8.8280554 4.8926058
Ga -4.514 14.1039448 8.6853943
Ga -4.514 10.2819443 7.1556058
Ga -4.514 12.6500559 6.4223938
Ga -2.257 12.6500559 4.8926058
Ga -2.257 10.2819443 8.6853943
Ga -2.257 14.1039448 7.1556058
Ga -2.257 8.8280554 6.4223938
Ga 0.0 1.1840556 -4.1593943
Ga 0.0 6.4599443 -0.3666058
Ga 0.0 2.6379442 -1.8963944
Ga 0.0 5.0060558 -2.629606
Ga 2.257 5.0060558 -4.1593943
Ga 2.257 2.6379442 -0.3666058
Ga 2.257 6.4599443 -1.8963944
Ga 2.257 1.1840556 -2.629606
Ga 0.0 1.1840556 0.366606
Ga 0.0 6.4599443 4.1593943
Ga 0.0 2.6379442 2.6296058
Ga 0.0 5.0060558 1.896394
Ga 2.257 5.0060558 0.366606
Ga 2.257 2.6379442 4.1593943
Ga 2.257 6.4599443 2.6296058
Ga 2.257 1.1840556 1.896394
Ga 0.0 1.1840556 4.8926058
Ga 0.0 6.4599443 8.6853943
Ga 0.0 2.6379442 7.1556058
Ga 0.0 5.0060558 6.4223938
Ga 2.257 5.0060558 4.8926058
Ga 2.257 2.6379442 8.6853943
Ga 2.257 6.4599443 7.1556058
Ga 2.257 1.1840556 6.4223938
Ga 0.0 8.8280554 -4.1593943
Ga 0.0 14.1039448 -0.3666058
Ga 0.0 10.2819443 -1.8963944
Ga 0.0 12.6500559 -2.629606
Ga 2.257 12.6500559 -4.1593943
Ga 2.257 10.2819443 -0.3666058
Ga 2.257 14.1039448 -1.8963944
Ga 2.257 8.8280554 -2.629606
Ga 0.0 8.8280554 0.366606
Ga 0.0 14.1039448 4.1593943
Ga 0.0 10.2819443 2.6296058
Ga 0.0 12.6500559 1.896394
Ga 2.257 12.6500559 0.366606
Ga 2.257 10.2819443 4.1593943
Ga 2.257 14.1039448 2.6296058
Ga 2.257 8.8280554 1.896394
Ga 0.0 8.8280554 4.8926058
Ga 0.0 14.1039448 8.6853943
Ga 0.0 10.2819443 7.1556058
Ga 0.0 12.6500559 6.4223938
Ga 2.257 12.6500559 4.8926058
Ga 2.257 10.2819443 8.6853943
Ga 2.257 14.1039448 7.1556058
Ga 2.257 8.8280554 6.4223938
Ga 4.514 1.1840556 -4.1593943
Ga 4.514 6.4599443 -0.3666058
Ga 4.514 2.6379442 -1.8963944
Ga 4.514 5.0060558 -2.629606
Ga 6.7709999 5.0060558 -4.1593943
Ga 6.7709999 2.6379442 -0.3666058
Ga 6.7709999 6.4599443 -1.8963944
Ga 6.7709999 1.1840556 -2.629606
Ga 4.514 1.1840556 0.366606
Ga 4.514 6.4599443 4.1593943
Ga 4.514 2.6379442 2.6296058
Ga 4.514 5.0060558 1.896394
Ga 6.7709999 5.0060558 0.366606
Ga 6.7709999 2.6379442 4.1593943
Ga 6.7709999 6.4599443 2.6296058
Ga 6.7709999 1.1840556 1.896394
Ga 4.514 1.1840556 4.8926058
Ga 4.514 6.4599443 8.6853943
Ga 4.514 2.6379442 7.1556058
Ga 4.514 5.0060558 6.4223938
Ga 6.7709999 5.0060558 4.8926058
Ga 6.7709999 2.6379442 8.6853943
Ga 6.7709999 6.4599443 7.1556058
Ga 6.7709999 1.1840556 6.4223938
Ga 4.514 8.8280554 -4.1593943
Ga 4.514 14.1039448 -0.3666058
Ga 4.514 10.2819443 -1.8963944
Ga 4.514 12.6500559 -2.629606
Ga 6.7709999 12.6500559 -4.1593943
Ga 6.7709999 10.2819443 -0.3666058
Ga 6.7709999 14.1039448 -1.8963944
Ga 6.7709999 8.8280554 -2.629606
Ga 4.514 8.8280554 0.366606
Ga 4.514 14.1039448 4.1593943
Ga 4.514 10.2819443 2.6296058
Ga 4.514 12.6500559 1.896394
Ga 6.7709999 12.6500559 0.366606
Ga 6.7709999 10.2819443 4.1593943
Ga 6.7709999 14.1039448 2.6296058
Ga 6.7709999 8.8280554 1.896394
Ga 4.514 8.8280554 4.8926058
Ga 4.514 14.1039448 8.6853943
Ga 4.514 10.2819443 7.1556058
Ga 4.514 12.6500559 6.4223938
Ga 6.7709999 12.6500559 4.8926058
Ga 6.7709999 10.2819443 8.6853943
Ga 6.7709999 14.1039448 7.1556058
Ga 6.7709999 8.8280554 6.4223938
